Version 4
SHEET 1 1540 680
WIRE 208 -32 176 -32
WIRE 208 -16 208 -32
WIRE 848 32 848 -16
WIRE 848 32 752 32
WIRE 480 48 448 48
WIRE 672 48 480 48
WIRE 224 64 208 64
WIRE 976 64 752 64
WIRE 224 80 224 64
WIRE 368 80 224 80
WIRE 448 80 448 48
WIRE 448 80 432 80
WIRE 672 80 624 80
WIRE 832 96 752 96
WIRE 896 96 832 96
WIRE 976 112 976 64
WIRE 160 128 -16 128
WIRE -16 144 -16 128
WIRE -352 176 -352 144
WIRE -192 176 -352 176
WIRE 896 176 896 96
WIRE 624 208 624 80
WIRE 688 208 624 208
WIRE 832 208 832 96
WIRE 832 208 768 208
WIRE -352 224 -352 176
WIRE 208 224 208 160
WIRE 208 224 -16 224
WIRE 624 224 624 208
WIRE 208 240 208 224
WIRE 624 304 496 304
WIRE -352 336 -352 304
FLAG -480 224 0
FLAG 896 176 Vout
FLAG 208 240 0
FLAG -480 144 Vcc
FLAG -352 64 Vcc
FLAG -352 336 0
FLAG -192 176 VBias
FLAG 976 112 0
FLAG 848 -16 Vcc
FLAG 176 -32 Vcc
FLAG 496 304 VBias
FLAG 480 128 0
FLAG 480 -32 Vcc
SYMBOL voltage -16 128 R0
WINDOW 123 43 37 Left 2
WINDOW 39 0 0 Left 0
WINDOW 3 42 63 Left 2
SYMATTR Value2 AC 1
SYMATTR Value SINE(0 2.5m 1k)
SYMATTR InstName V1
SYMBOL voltage -480 128 R0
WINDOW 123 0 0 Left 0
WINDOW 39 0 0 Left 0
SYMATTR InstName V2
SYMATTR Value 10
SYMBOL res 192 -32 R0
SYMATTR InstName R1
SYMATTR Value 5k
SYMBOL cap 432 64 R90
WINDOW 0 0 32 VBottom 2
WINDOW 3 32 32 VTop 2
SYMATTR InstName C1
SYMATTR Value 1µ
SYMBOL njf 160 64 R0
SYMATTR InstName J1
SYMATTR Value 2N4117A
SYMBOL res -368 48 R0
SYMATTR InstName R2
SYMATTR Value 10k
SYMBOL res -368 208 R0
SYMATTR InstName R3
SYMATTR Value 10k
SYMBOL AutoGenerated\\LM358_NS 704 64 R0
SYMATTR InstName U2
SYMBOL res 608 208 R0
SYMATTR InstName R5
SYMATTR Value 5k
SYMBOL res 464 -48 R0
SYMATTR InstName R6
SYMATTR Value 4.7k
SYMBOL res 464 32 R0
SYMATTR InstName R7
SYMATTR Value 4.7k
SYMBOL res 784 192 R90
WINDOW 0 0 56 VBottom 2
WINDOW 3 32 56 VTop 2
SYMATTR InstName R4
SYMATTR Value 100k
TEXT 112 360 Left 2 !;.tran 10m
TEXT 368 400 Left 2 !;noise V(Vout2) V1 oct 100 100 100k
TEXT 112 408 Left 2 !.ac oct 100 1 100k
