Version 4
SHEET 1 2244 680
WIRE 656 -240 592 -240
WIRE 800 -240 720 -240
WIRE 960 -144 928 -144
WIRE 592 -128 592 -240
WIRE 656 -128 592 -128
WIRE 800 -128 800 -240
WIRE 800 -128 736 -128
WIRE 208 -32 176 -32
WIRE 208 -16 208 -32
WIRE 848 32 848 -16
WIRE 848 32 752 32
WIRE 1552 32 1552 -16
WIRE 1552 32 1456 32
WIRE 640 48 640 16
WIRE 672 48 640 48
WIRE 800 48 800 -128
WIRE 928 48 928 -144
WIRE 928 48 800 48
WIRE 992 48 928 48
WIRE 1120 48 1072 48
WIRE 1376 48 1120 48
WIRE 208 64 208 48
WIRE 224 64 208 64
WIRE 848 64 752 64
WIRE 1552 64 1456 64
WIRE 224 80 224 64
WIRE 368 80 224 80
WIRE 448 80 432 80
WIRE 592 80 592 -128
WIRE 592 80 528 80
WIRE 672 80 592 80
WIRE 1376 80 1296 80
WIRE 800 96 800 48
WIRE 800 96 752 96
WIRE 1520 96 1456 96
WIRE 848 112 848 64
WIRE 1552 112 1552 64
WIRE 160 128 -16 128
WIRE -16 144 -16 128
WIRE 1120 160 1120 112
WIRE 1520 160 1520 96
WIRE 1728 160 1520 160
WIRE 1888 160 1728 160
WIRE 2000 160 1952 160
WIRE 2064 160 2000 160
WIRE -352 176 -352 144
WIRE -192 176 -352 176
WIRE 1296 192 1296 80
WIRE 1344 192 1296 192
WIRE 1408 192 1344 192
WIRE 1520 192 1520 160
WIRE 1520 192 1488 192
WIRE -352 224 -352 176
WIRE 208 224 208 160
WIRE 208 224 -16 224
WIRE 208 240 208 224
WIRE 1344 272 1216 272
WIRE 1216 304 1216 272
WIRE -352 336 -352 304
FLAG -480 224 0
FLAG 208 240 0
FLAG -480 144 Vcc
FLAG -352 64 Vcc
FLAG -352 336 0
FLAG -192 176 VBias
FLAG 848 112 0
FLAG 848 -16 Vcc
FLAG 176 -32 Vcc
FLAG 640 16 VBias
FLAG 1552 112 0
FLAG 1552 -16 Vcc
FLAG 1120 160 0
FLAG 2064 160 Vout
FLAG 928 -144 V_1stStage
FLAG 2000 240 0
FLAG 1216 384 0
FLAG 1216 192 Vcc
FLAG 1728 240 0
SYMBOL voltage -16 128 R0
WINDOW 123 43 37 Left 2
WINDOW 39 0 0 Left 0
WINDOW 3 42 63 Left 2
SYMATTR Value2 AC 1
SYMATTR Value SINE(0 250u 1k)
SYMATTR InstName V1
SYMBOL voltage -480 128 R0
WINDOW 123 0 0 Left 0
WINDOW 39 0 0 Left 0
SYMATTR InstName V2
SYMATTR Value 10
SYMBOL cap 432 64 R90
WINDOW 0 0 32 VBottom 2
WINDOW 3 32 32 VTop 2
SYMATTR InstName C1
SYMATTR Value 1µ
SYMBOL njf 160 64 R0
SYMATTR InstName J1
SYMATTR Value 2N4117A
SYMBOL res -368 48 R0
SYMATTR InstName R2
SYMATTR Value 4.7k
SYMBOL res -368 208 R0
SYMATTR InstName R3
SYMATTR Value 4.7k
SYMBOL AutoGenerated\\LM358_NS 704 64 R0
SYMATTR InstName U2
SYMBOL res 544 64 R90
WINDOW 0 0 56 VBottom 2
WINDOW 3 32 56 VTop 2
SYMATTR InstName R4
SYMATTR Value 4.7k
SYMBOL res 752 -144 R90
WINDOW 0 0 56 VBottom 2
WINDOW 3 32 56 VTop 2
SYMATTR InstName R5
SYMATTR Value 100k
SYMBOL cap 720 -256 R90
WINDOW 0 0 32 VBottom 2
WINDOW 3 32 32 VTop 2
SYMATTR InstName C2
SYMATTR Value 220p
SYMBOL AutoGenerated\\LM358_NS 1408 64 R0
SYMATTR InstName U1
SYMBOL res 1088 32 R90
WINDOW 0 0 56 VBottom 2
WINDOW 3 32 56 VTop 2
SYMATTR InstName R6
SYMATTR Value 1k
SYMBOL cap 1104 48 R0
SYMATTR InstName C3
SYMATTR Value 10n
SYMBOL cap 1952 144 R90
WINDOW 0 0 32 VBottom 2
WINDOW 3 32 32 VTop 2
SYMATTR InstName C4
SYMATTR Value 1µ
SYMBOL res 1984 144 R0
SYMATTR InstName R7
SYMATTR Value 10k
SYMBOL res 1200 176 R0
SYMATTR InstName R8
SYMATTR Value 4.7k
SYMBOL res 1200 288 R0
SYMATTR InstName R9
SYMATTR Value 4.7k
SYMBOL res 1328 176 R0
SYMATTR InstName R10
SYMATTR Value 4.7k
SYMBOL res 1504 176 R90
WINDOW 0 0 56 VBottom 2
WINDOW 3 32 56 VTop 2
SYMATTR InstName R11
SYMATTR Value 47k
SYMBOL res 1712 144 R0
SYMATTR InstName R12
SYMATTR Value 1k
SYMBOL res 192 -32 R0
SYMATTR InstName R1
SYMATTR Value 4.7k
TEXT 296 288 Left 2 !;.tran 10m
TEXT 288 232 Left 2 !;noise V(Vout2) V1 oct 100 100 100k
TEXT 296 336 Left 2 !.ac oct 100 1 100k
